/*--------------------------------*- C++ -*----------------------------------*\
| =========                 |                                                 |
| \\      /  F ield         | OpenFOAM: The Open Source CFD Toolbox           |
|  \\    /   O peration     | Version:  2.4.0                                 |
|   \\  /    A nd           | Web:      www.OpenFOAM.org                      |
|    \\/     M anipulation  |                                                 |
\*---------------------------------------------------------------------------*/
FoamFile
{
    version     2.0;
    format      ascii;
    class       volScalarField;
    location    "0";
    object      k;
}
// * * * * * * * * * * * * * * * * * * * * * * * * * * * * * * * * * * * * * //

dimensions      [0 2 -2 0 0 0 0];

internalField   uniform 252333.919;

boundaryField
{
    inlet
    {
        type            fixedValue;
        value           uniform 252333.919;
    }
    outlet
    {
        type            zeroGradient;
    }
    lowerWall
    {
        type            compressible::kqRWallFunction;
        value           uniform 252333.919;
    }
    upperWall
    {
        type            compressible::kqRWallFunction;
        value           uniform 252333.919;
    }
    wall
    {
        type            compressible::kqRWallFunction;
        value           uniform 252333.919;
    }

    frontAndBack
    {
        type            empty;
    }
    
}


// ************************************************************************* //
