/*--------------------------------*- C++ -*----------------------------------*\
| =========                 |                                                 |
| \\      /  F ield         | OpenFOAM: The Open Source CFD Toolbox           |
|  \\    /   O peration     | Version:  2.3.0                                 |
|   \\  /    A nd           | Web:      www.OpenFOAM.org                      |
|    \\/     M anipulation  |                                                 |
\*---------------------------------------------------------------------------*/
FoamFile
{
    version     2.0;
    format      ascii;
    class       dictionary;
    location    "system";
    object      controlDict;
}
// * * * * * * * * * * * * * * * * * * * * * * * * * * * * * * * * * * * * * //

application     hy2Foam;

startFrom       latestTime;

startTime       0.000929168;

stopAt          endTime;

endTime         0.1;

deltaT          1.0e-06;

writeControl    timeStep;

writeInterval   100;

purgeWrite      3;

writeFormat     ascii;

writePrecision  10;

writeCompression off;

timeFormat      general;

timePrecision   6;

runTimeModifiable true;

adjustTimeStep  true;

maxCo           0.5;

maxDeltaT       1.0e-5;

libs ("libstrathFiniteVolume.so");

functions
{
   #include "forces"
    
	//#include "surfaceCoefficients"
	
	//#include "surfaces"
	
    //#include "surfaceQuantities"

    fieldAverage
    {
        type                    fieldAverage;
        functionObjectLibs ( "libfieldFunctionObjects.so" );
        enabled                 true;
        outputControl           outputTime;
        //resetOnOutput         false;

        fields
        (
            U
            {
                mean        on;
                prime2Mean  on;
                base        time;
            }

            p
            {
                mean        on;
                prime2Mean  on;
                base        time;
            }
        );
    }

}


// ************************************************************************* //
