/*--------------------------------*- C++ -*----------------------------------*\
| =========                 |                                                 |
| \\      /  F ield         | OpenFOAM: The Open Source CFD Toolbox           |
|  \\    /   O peration     | Version:  2.4.0                                 |
|   \\  /    A nd           | Web:      www.OpenFOAM.org                      |
|    \\/     M anipulation  |                                                 |
\*---------------------------------------------------------------------------*/
FoamFile
{
    version     2.0;
    format      ascii;
    class       polyBoundaryMesh;
    location    "constant/polyMesh";
    object      boundary;
}
// * * * * * * * * * * * * * * * * * * * * * * * * * * * * * * * * * * * * * //

6
(
    inlet
    {
        type            patch;
        nFaces          200;
        startFace       367279;
    }
    outlet
    {
        type            patch;
        nFaces          200;
        startFace       367479;
    }
    upperWall
    {
        type            wall;
        inGroups        1(wall);
        nFaces          921;
        startFace       367679;
    }
    lowerWall
    {
        type            wall;
        inGroups        1(wall);
        nFaces          919;
        startFace       368600;
    }
    wall
    {
        type            wall;
        inGroups        1(wall);
        nFaces          2;
        startFace       369519;
    }
    frontAndBackPlanes
    {
        type            empty;
        inGroups        1(empty);
        nFaces          368400;
        startFace       369521;
    }
)

// ************************************************************************* //
